@<TRIPOS>MOLECULE
A1
27   29    1
SMALL
USER_CHARGES


@<TRIPOS>ATOM
      1 O1         -8.6590   -1.5430    1.1790 O.3       1 MOL        -0.6482 
      2 C10        -8.5440   -0.8950   -0.1590 C.3       1 MOL         0.1985 
      3 C7         -7.2960   -1.5920   -1.0270 C.3       1 MOL        -0.1383 
      4 C1         -7.2580   -0.9270   -2.4110 C.3       1 MOL        -0.0830 
      5 C8         -8.1230    0.6280   -0.0470 C.3       1 MOL        -0.1383 
      6 C5         -7.9780    1.3080   -1.4140 C.3       1 MOL        -0.0830 
      7 C6         -6.8530    0.5910   -2.2410 C.3       1 MOL        -0.1246 
      8 C4         -9.3270    1.2440   -2.1180 C.3       1 MOL        -0.1246 
      9 C9         -9.8690   -0.9620   -0.9500 C.3       1 MOL        -0.1383 
     10 C3         -9.7200   -0.2700   -2.3030 C.3       1 MOL        -0.0830 
     11 C2         -8.6010   -0.8870   -3.1730 C.3       1 MOL        -0.1246 
     12 H2         -9.1200   -2.3730    1.0360 H         1 MOL         0.4188 
     13 H3         -7.5430   -2.6720   -1.1140 H         1 MOL         0.0723 
     14 H4         -6.4310   -1.4960   -0.3360 H         1 MOL         0.0723 
     15 H5         -6.4400   -1.3890   -3.0050 H         1 MOL         0.0778 
     16 H6         -7.2320    0.8150    0.5900 H         1 MOL         0.0723 
     17 H7         -8.9440    1.0910    0.5420 H         1 MOL         0.0723 
     18 H8         -7.6610    2.3520   -1.2080 H         1 MOL         0.0778 
     19 H9         -6.7570    0.9080   -3.3010 H         1 MOL         0.0669 
     20 H10        -5.8780    0.7390   -1.7280 H         1 MOL         0.0669 
     21 H11        -9.2930    1.6360   -3.1570 H         1 MOL         0.0669 
     22 H12       -10.0880    1.9020   -1.6450 H         1 MOL         0.0669 
     23 H13       -10.6400   -0.4960   -0.2990 H         1 MOL         0.0723 
     24 H14       -10.0570   -2.0430   -1.1280 H         1 MOL         0.0723 
     25 H15       -10.6670   -0.2970   -2.8830 H         1 MOL         0.0778 
     26 H16        -8.8820   -1.9350   -3.4110 H         1 MOL         0.0669 
     27 H17        -8.5270   -0.3930   -4.1650 H         1 MOL         0.0669 
@<TRIPOS>BOND
     1    1    2 1    
     2    1   12 1    
     3    2    3 1    
     4    2    5 1    
     5    2    9 1    
     6    3    4 1    
     7    3   13 1    
     8    3   14 1    
     9    4    7 1    
    10    4   11 1    
    11    4   15 1    
    12    5    6 1    
    13    5   16 1    
    14    5   17 1    
    15    6    7 1    
    16    6    8 1    
    17    6   18 1    
    18    7   19 1    
    19    7   20 1    
    20    8   10 1    
    21    8   21 1    
    22    8   22 1    
    23    9   10 1    
    24    9   23 1    
    25    9   24 1    
    26   10   11 1    
    27   10   25 1    
    28   11   26 1    
    29   11   27 1    
@<TRIPOS>SUBSTRUCTURE
     1 MOL         1 GROUP             0 X     ****    0 ROOT    
